.MODEL MODN NMOS (LEVEL=2 VTO=1 NSUB=1E16 TOX=8.5E-8 U0=750
+ CGSO=4E-10 CGDO=4E-10 CGBO=2E-10 UCRIT=5E4 UEXP=.14 UTRA=0
+ VMAX=5E4 RSH=15 CJ=4E-4 MJ=2 PB=.7 CJSW=8E-10 MJSW=2 JS=1E-6
+ XJ=1U LD=.7U)

.MODEL MODP PMOS (LEVEL=2 VTO=-1 NSUB=2E15 TOX=8.5E-8 U0=250
+ CGSO=4E-10 CGDO=4E-10 CGBO=2E-10 UCRIT=9.99E3 UEXP=.03 UTRA=0
+ VMAX=3E4 RSH=75 CJ=1.8E-4 MJ=2 PB=.7 CJSW=6E-10 MJSW=2 JS=1E-6
+ XJ=.9U LD=.6U)

