*
.MODEL kbreak1 CORE (AREA=2.0 PATH=62.73 GAP=0.1 MS=1.6E+6 A=1E+3
+   C=0.5 K=1500)
*
.MODEL Dbreak1  D(IS=3.93E-9 RS=1  BV=100V IBV=5E-6 CJO=1.7PF TT=2NS) 
.MODEL Dbreak2 D(IS=0.5E-6  RS=1  BV=5.2V IBV=0.5E-6)
.MODEL Dbreak3 D(IS=100E-15 RS=16 BV=100V IBV=100E-15)  
.MODEL Dbreak4 D(IS=100E-15 RS=16 BV=100V IBV=100E-15 CJO=2PF	TT=12NS) 
.MODEL Dbreak5 D(IS=100E-15 DEV=10% RS=1 CJO=2PF TT=12NS BV=100V IBV=100E-15) 
.MODEL Dbreak6 D 
.MODEL Dbreak7 D (RS=40 TT=0.1NS)
*
.MODEL RMOD1 RES (R=1.05)
.MODEL RMOD2 RES (R=0.9)
.MODEL RMOD  RES (R=1.0)
.MODEL RMD1  RES (R=1.0 DEV=15%)
.MODEL RMD   RES (R=1 TC1=0.02 TC2=0.005)
.MODEL Rbreak1  RES (R=1.0 DEV=10%)
.MODEL Rbreak2  RES (R=1.0 DEV=20%)
.MODEL Rbreak3  RES (R=1.0 DEV=25%)
*
.MODEL CMOD  CAP (C=1 VC1=0.01 VC2=0.002 TC1=0.02 TC2=0.005)
.MODEL CMD   CAP (C=1 DEV/GAUSS=10%) 
.MODEL Cbreak1  CAP (C=1 DEV/GAUSS=15%) 
*
.MODEL LMOD  IND (L=1 IL1=0.1  IL2=0.002 TC1=0.02 TC2=0.005)
.MODEL LMD   IND (L=1 DEV/UNIFORM=20%) 
*
.MODEL QbreakN1  NPN (IS=2.105E-16 BF=173 VA=83.3V CJE=29.96PF CJC=19.4PF TF=489.88PS TR=4.9NS)
.MODEL QbreakN2  NPN (BF=100 BR=1 RB=5 RC=1 RE=0 VJE=0.9 VA=100)
.MODEL QbreakN3  NPN (IS=2E-16 BF=50 BR=1 RB=5 RC=1 RE=0 CJE=0.4PF 
+ 	VJE=0.8 ME=0.4 CJC=0.5PF VJC=0.8 CCS=1PF VA=100)
.MODEL QbreakN4  NPN (IS=2E-16 BF=50 BR=1 RB=5 RC=1 RE=0 TF=0.2NS TR=5NS) 
.MODEL QbreakN5 NPN (BF=50 RB=70 RC=40 TF=0.1NS TR=10NS VJC=0.85 VAF=50)
.MODEL QbreakN6 NPN (BF=50 RB=70 RC=40) 
.MODEL QbreakN7 NPN (IS=1E-16 BF=50 BR=0.1 RB=50 RC=10 TF=0.12NS TR=5NS
+  CJE=0.4PF PE=0.8 ME=0.4 CJC=0.5PF PC=0.8 MC=0.333 CCS=1PF VA=50)

.MODEL JbreakN1  NJF (IS=1005E-14 RD=10 RS=10 BETA=1E-3 VTO=-5) 
*
.MODEL MbreakN1  NMOS (VTO=1 KP=6.5E-3 CBD=5PF CBS=2PF RD=5 RS=2 RB=0
+   RG=0 RDS=1MEG CGSO=1PF CGDO=1PF CGBO=1PF)
.MODEL  MbreakN2 NMOS (VTO=2 KP=4.5E-5 CBD=5PF CBS=2PF RD=5 RS=2 RB=0
+  RG=0 RDS=1MEG CGSO=1PF CGDO=1PF CGBO=1PF)
*
.MODEL MbreakP1 PMOS (VTO=-2 KP=4.5E-4 CBD=5PF CBS=2PF RD=5 RS=2 RB=0
+  RG=0 RDS=1MEG CGSO=1PF CGDO=1PF CGBO=1PF)
*
.MODEL QbreakP1  PNP (IS=2E-16 BF=100 BR=1 RB=5 RC=1 RE=0 TF=0.2Ns TR=5NS CJE=0.4PF 
+ 	VJE=0.8 ME=0.4 CJC=0.5PF VJC=0.8 CCS=1PF VA=100)
*
.MODEL Bbreak1 GASFET (VTO=-2.5 BETA=65U VBI=0.5 ALPHA=1.5 TAU=10PS)
.MODEL Bbreak2 GASFET (VTO=-2.5 BETA=32.5U VBI=0.5 ALPHA=1.5)
*
.MODEL 	VMOD  VSWITCH (RON=0.01 ROFF=1E6   VON=0.1V VOFF=0)
.MODEL 	WMOD  ISWITCH (RON=1E6  ROFF=0.001 ION=1MA  IOFF=0)
.MODEL 	SMOD  VSWITCH (RON=0.01 ROFF=1E6   VON=0.001V VOFF=0)
*
* X-QMOD	collector 	base 			emitter 		QMOD
*		
.SUBCKT	QMOD 		6		7		5 		
RB 	1		2		100
RE		3		5		1
RC		4		6		10
RBE	2		3		1k
RO		4		3		100k
VI		7		1		DC		0V
F1		4		3		VI		20
.ENDS		QMOD


.MODEL CMOSN NMOS (LEVEL=3 PHI=0.700000 TOX=9.6000E-09 XJ=0.200000U TPG=1
+ VTO=0.6684 DELTA=1.0700E+00 LD=4.2030E-08 KP=1.7748E-04 
+ UO=493.4 THETA=1.8120E-01 RSH=1.6680E+01 GAMMA=0.5382 
+ NSUB=1.1290E+17 NFS=7.1500E+11 VMAX=2.7900E+05 ETA=1.8690E-02 
+ KAPPA=1.6100E-01 CGDO=4.0920E-10 CGSO=4.0920E-10 
+ CGBO=3.7765E-10 CJ=5.9000E-04 MJ=0.76700 CJSW=2.0000E-11 
+ MJSW=0.71000 PB=0.9900000 WD=1.83E-07 LAMBDA=0.02)

.MODEL CMOSP PMOS (LEVEL=3 PHI=0.700000 TOX=9.6000E-09 XJ=0.200000U TPG=-1
+ VTO=-0.9352 DELTA=1.2380E-02 LD=5.2440E-08 KP=4.4927E-05 
+ UO=124.9 THETA=5.7490E-02 RSH=1.1660E+00 GAMMA=0.4551 
+ NSUB=8.0710E+16 NFS=5.9080E+11 VMAX=2.2960E+05 ETA=2.1930E-02 
+ KAPPA=9.3660E+00 CGDO=2.1260E-10 CGSO=2.1260E-10 
+ CGBO=3.6890E-10 CJ=9.3400E-04 MJ=0.48300 CJSW=2.5100E-10 
+ MJSW=0.21200 PB=0.930000 WD=1.75E-07 LAMBDA=0.02)
 



