.subckt beta_with_r_be c b e
R_be b e rpi
C_be b e cbe
C_bc b c cbc
R_ce c e ro
VC b e 0v
F1 c e V_VC betaac
.ends

.subckt beta_with_r_be_G c b e
R_be b e rpi
C_be b e cbe
C_bc b c cbc
R_ce c e ro
G1 c e b e betaac
.ends
